/*--------------------------------*- C++ -*----------------------------------*\
| =========                 |                                                 |
| \\      /  F ield         | OpenFOAM: The Open Source CFD Toolbox           |
|  \\    /   O peration     | Version:  v2006                                 |
|   \\  /    A nd           | Web:      www.OpenFOAM.org                      |
|    \\/     M anipulation  |                                                 |
\*---------------------------------------------------------------------------*/
FoamFile
{
    version     2.0;
    format      ascii;
    class       dictionary;
    object      blockMeshDict;
}
// * * * * * * * * * * * * * * * * * * * * * * * * * * * * * * * * * * * * * //

vertices
(
    (-5000e-6 -4000e-6 -10000e-6)
    (5000e-6 -4000e-6 -10000e-6)
    (5000e-6 1000e-6 -10000e-6)
    (-5000e-6 1000e-6 -10000e-6)
    (-5000e-6 -4000e-6 1000e-6)
    (5000e-6 -4000e-6 1000e-6)
    (5000e-6 1000e-6 1000e-6)
    (-5000e-6 1000e-6 1000e-6)
);

blocks
(
	hex (0 1 2 3 4 5 6 7) (50 25 55) simpleGrading (1 1 1)		
);

edges
(
);

boundary
(
	top // positive z face
    {
        type patch;
        faces
        (
            (4 5 6 7)
        );
    }
	
	bottom // negative z face
    {
        type patch;
        faces
        (
            (0 3 2 1)
        );
    }
	
	right // positive x face
    {
        type patch;
        faces
        (
            (1 2 6 5)
        );
    }
	
	left // negative x face
    {
        type patch;
        faces
        (
            (0 4 7 3)
        );
    }

    front // positive y face
    {
        type patch;
        faces
        (
            (2 3 7 6)
        );
    }
	
    back // negative y face (atmosphere)
    {
        type patch;
        faces
        (
            (0 1 4 5)
        );
    }
);

mergePatchPairs
(
);

// ************************************************************************* //
